Version 4
SHEET 1 1456 680
WIRE 864 -960 864 -992
WIRE -720 -944 -800 -944
WIRE -608 -944 -640 -944
WIRE -560 -944 -608 -944
WIRE -416 -944 -480 -944
WIRE 32 -928 -112 -928
WIRE 800 -912 736 -912
WIRE -112 -848 -112 -928
WIRE -64 -848 -112 -848
WIRE -608 -832 -608 -944
WIRE -560 -832 -608 -832
WIRE 32 -832 32 -928
WIRE 32 -832 0 -832
WIRE 64 -832 32 -832
WIRE 192 -832 144 -832
WIRE 256 -832 192 -832
WIRE 384 -832 256 -832
WIRE -416 -816 -416 -944
WIRE -416 -816 -496 -816
WIRE -384 -816 -416 -816
WIRE -352 -816 -384 -816
WIRE -224 -816 -272 -816
WIRE -176 -816 -224 -816
WIRE -64 -816 -176 -816
WIRE 192 -816 192 -832
WIRE 528 -816 448 -816
WIRE 560 -816 528 -816
WIRE 608 -816 560 -816
WIRE 736 -816 736 -912
WIRE 736 -816 688 -816
WIRE 768 -816 736 -816
WIRE 864 -816 864 -864
WIRE 864 -816 848 -816
WIRE 912 -816 864 -816
WIRE 944 -816 912 -816
WIRE 976 -816 944 -816
WIRE 1104 -816 1056 -816
WIRE 1120 -816 1104 -816
WIRE 1152 -816 1120 -816
WIRE 1264 -816 1232 -816
WIRE -560 -800 -608 -800
WIRE 384 -800 368 -800
WIRE 560 -800 560 -816
WIRE 1104 -784 1104 -816
WIRE 1264 -784 1264 -816
WIRE 864 -768 864 -816
WIRE 736 -720 736 -816
WIRE 800 -720 736 -720
WIRE -720 -704 -800 -704
WIRE -608 -704 -608 -800
WIRE -608 -704 -640 -704
WIRE -560 -704 -608 -704
WIRE -416 -704 -480 -704
WIRE 560 -704 560 -720
WIRE -448 -640 -592 -640
WIRE 864 -640 864 -672
WIRE 240 -592 176 -592
WIRE 368 -592 368 -800
WIRE 368 -592 320 -592
WIRE 560 -592 560 -640
WIRE 560 -592 368 -592
WIRE 688 -592 560 -592
WIRE 912 -592 912 -816
WIRE 912 -592 768 -592
WIRE 176 -576 176 -592
WIRE -592 -560 -592 -640
WIRE -544 -560 -592 -560
WIRE -448 -544 -448 -640
WIRE -448 -544 -480 -544
WIRE -416 -544 -416 -704
WIRE -416 -544 -448 -544
WIRE -544 -528 -752 -528
WIRE -752 -512 -752 -528
WIRE -224 -384 -224 -816
WIRE -480 -304 -560 -304
WIRE -272 -304 -416 -304
WIRE -480 -256 -480 -288
WIRE -960 -208 -1008 -208
WIRE -928 -208 -960 -208
WIRE -800 -208 -848 -208
WIRE -1008 -192 -1008 -208
FLAG -1008 -112 0
FLAG -480 -256 0
FLAG -560 -304 BLANK_IN
FLAG -960 -208 BLANK_IN
FLAG -224 -288 0
FLAG -512 -576 vcc
FLAG -512 -512 0
FLAG -752 -432 0
FLAG -528 -848 vcc
FLAG -528 -784 0
FLAG -32 -864 vcc
FLAG -32 -800 0
FLAG 416 -784 vcc
FLAG 416 -848 0
FLAG 192 -752 0
FLAG 864 -640 0
FLAG 864 -992 vcc
FLAG 176 -576 0
FLAG -32 -1072 0
FLAG -32 -1152 vcc
FLAG 1104 -720 0
FLAG 1264 -720 0
FLAG -416 -544 Vtrim_buff
FLAG -384 -816 Vdiff_out
FLAG -176 -816 Vblank1
FLAG 32 -928 Vblank2
FLAG 256 -832 Vblank3
FLAG 528 -816 drive_out
FLAG 736 -912 drive_base
FLAG 944 -816 drive_emmitter
FLAG 1120 -816 vg1
FLAG 1264 -816 vg2
SYMBOL nmos -272 -384 R0
SYMATTR InstName M1
SYMATTR Value BSS123
SYMBOL voltage -1008 -208 R0
WINDOW 123 0 0 Left 0
WINDOW 39 0 0 Left 0
SYMATTR InstName V2
SYMATTR Value PULSE(0 5 1m 1u 1u 200u 400u)
SYMBOL res -832 -224 R90
WINDOW 0 0 56 VBottom 2
WINDOW 3 32 56 VTop 2
SYMATTR InstName R6
SYMATTR Value 10
SYMBOL Digital\\inv -480 -368 R0
WINDOW 3 -93 1 Left 2
SYMATTR Value VLOW=0 VHIGH=5
SYMATTR InstName A1
SYMBOL voltage -752 -528 R0
WINDOW 123 0 0 Left 0
WINDOW 39 0 0 Left 0
WINDOW 0 14 -10 Left 2
SYMATTR InstName Vtrim
SYMATTR Value 3
SYMBOL Opamps\\opamp2 -512 -608 R0
WINDOW 3 -78 129 Left 2
SYMATTR InstName U2
SYMATTR Value amp_tlv27x_highVdd
SYMBOL Opamps\\opamp2 -528 -880 R0
WINDOW 3 -65 124 Left 2
SYMATTR InstName U3
SYMATTR Value amp_tlv27x_highVdd
SYMBOL res -464 -960 R90
WINDOW 0 0 56 VBottom 2
WINDOW 3 32 56 VTop 2
SYMATTR InstName R8
SYMATTR Value 10K
SYMBOL res -624 -960 R90
WINDOW 0 0 56 VBottom 2
WINDOW 3 32 56 VTop 2
SYMATTR InstName R9
SYMATTR Value 10K
SYMBOL res -464 -720 R90
WINDOW 0 0 56 VBottom 2
WINDOW 3 32 56 VTop 2
SYMATTR InstName R10
SYMATTR Value 10K
SYMBOL res -624 -720 R90
WINDOW 0 0 56 VBottom 2
WINDOW 3 32 56 VTop 2
SYMATTR InstName R11
SYMATTR Value 10K
SYMBOL res -256 -832 R90
WINDOW 0 0 56 VBottom 2
WINDOW 3 32 56 VTop 2
SYMATTR InstName R7
SYMATTR Value 1K
SYMBOL Opamps\\opamp2 -32 -896 R0
WINDOW 3 -78 129 Left 2
SYMATTR InstName U4
SYMATTR Value TLV2374
SYMBOL res 160 -848 R90
WINDOW 0 0 56 VBottom 2
WINDOW 3 32 56 VTop 2
SYMATTR InstName R12
SYMATTR Value 1K
SYMBOL cap 176 -816 R0
SYMATTR InstName C3
SYMATTR Value 1n
SYMBOL res 576 -704 R180
WINDOW 0 36 76 Left 2
WINDOW 3 36 40 Left 2
SYMATTR InstName R13
SYMATTR Value 1m
SYMBOL cap 544 -704 R0
SYMATTR InstName C4
SYMATTR Value 330p
SYMBOL res 592 -800 R270
WINDOW 0 32 56 VTop 2
WINDOW 3 0 56 VBottom 2
SYMATTR InstName R14
SYMATTR Value {Rb}
SYMBOL npn 800 -960 R0
SYMATTR InstName Q1
SYMATTR Value 2N3904
SYMBOL pnp 800 -672 M180
SYMATTR InstName Q2
SYMATTR Value 2N3906
SYMBOL res 752 -800 R270
WINDOW 0 32 56 VTop 2
WINDOW 3 0 56 VBottom 2
SYMATTR InstName R15
SYMATTR Value {Rbe}
SYMBOL res 784 -608 R90
WINDOW 0 0 56 VBottom 2
WINDOW 3 32 56 VTop 2
SYMATTR InstName R16
SYMATTR Value 10K
SYMBOL res 336 -608 R90
WINDOW 0 0 56 VBottom 2
WINDOW 3 32 56 VTop 2
SYMATTR InstName R17
SYMATTR Value 10K
SYMBOL voltage -32 -1168 R0
WINDOW 123 0 0 Left 0
WINDOW 39 0 0 Left 0
SYMATTR InstName V1
SYMATTR Value 12
SYMBOL res 960 -800 R270
WINDOW 0 32 56 VTop 2
WINDOW 3 0 56 VBottom 2
SYMATTR InstName R1
SYMATTR Value {Rg1/Nloads}
SYMBOL cap 1088 -784 R0
SYMATTR InstName C1
SYMATTR Value {Nloads*Cg1}
SYMBOL res 1136 -800 R270
WINDOW 0 32 56 VTop 2
WINDOW 3 0 56 VBottom 2
SYMATTR InstName R2
SYMATTR Value {Rg2/Nloads}
SYMBOL cap 1248 -784 R0
SYMATTR InstName C2
SYMATTR Value {Nloads*Cg2}
SYMBOL Opamps\\opamp2 416 -752 M180
WINDOW 3 -78 129 Left 2
SYMATTR InstName U5
SYMATTR Value TLV2374
TEXT -472 -1120 Left 2 !.tran 0 2m 0.95m
TEXT -496 -1072 Left 2 !.lib TLV271.LIB\n.lib TLV2374.LIB
TEXT 680 -1248 Left 2 !.param Rbe=100\n.param Rb=1\n.param Rg1=100\n.param Cg1=22n\n.param Rg2=100\n.param Cg2=22n\n.param Nloads=4
TEXT 1008 -1144 Left 2 !;.step param Rbe LIST 10 33 50 100\n;.step param Rb LIST 0.1 1 10 50\n.step param Nloads LIST 1 2 4
